# Packages
 &PACKAGES
 useEXF    = .TRUE.,
 useSEAICE = .TRUE.,
 useThSIce = .TRUE.,
 useKPP  = .TRUE.,
 useRBCS   = .TRUE.,
 useLayers = .FALSE.,
 useDiagnostics=.TRUE.,
 useCAL=.TRUE.,
#---------------------------------------
 &
